Circuit: * LMX58_LM2904 - Rev. B

Fatal Error: No analysis request found.
