Circuit: * C:\Users\thean\OneDrive\Documents\1. Uni Work\HPR\Strelka-Flight-Computer\Simulations\Continuity_Test.asc

Direct Newton iteration for .op point succeeded.
.step x=1e-007
.step x=0.5
.step x=1
.step x=1.5
.step x=2
.step x=2.5
.step x=3
.step x=1e+006

Date: Thu Sep 29 19:12:41 2022
Total elapsed time: 0.313 seconds.

tnom = 27
temp = 27
method = modified trap
totiter = 1461
traniter = 1048
tranpoints = 525
accept = 525
rejected = 0
matrix size = 17
fillins = 1
solver = Normal
Matrix Compiler1: 802 bytes object code size  0.1/0.1/[0.1]
Matrix Compiler2: 1.34 KB object code size  0.1/0.1/[0.1]

