Circuit: * C:\Users\thean\OneDrive\Documents\1. Uni Work\HPR\Strelka-Flight-Computer\Simulations\Continuity_Test.asc

Direct Newton iteration failed to find .op point.  (Use ".option noopiter" to skip.)
Starting Gmin stepping
Gmin = 10
Gmin = 1.07374
Gmin = 0.115292
Gmin = 0.0123794
Gmin = 0.00132923
Gmin = 0.000142725
vernier = 0.5
vernier = 0.25
Gmin = 4.15716e-005
vernier = 0.125
vernier = 0.0625
vernier = 0.0833333
Gmin = 3.76856e-005
vernier = 0.111111
Gmin = 2.96418e-005
vernier = 0.148148
vernier = 0.197531
Gmin = 2.0065e-005
vernier = 0.263374
vernier = 0.351165
Gmin = 1.08876e-005
vernier = 0.46822
Gmin = 4.10988e-006
vernier = 0.624294
vernier = 0.832392
Gmin = 8.74049e-007
vernier = 1
Gmin = 1.03958e-007
Gmin = 1.11624e-008
Gmin = 1.19856e-009
Gmin = 1.28694e-010
Gmin = 1.38184e-011
Gmin = 1.48374e-012
Gmin = 1.59316e-013
Gmin = 0
Gmin stepping succeeded in finding the operating point.


Date: Tue Oct 04 21:59:41 2022
Total elapsed time: 0.164 seconds.

tnom = 27
temp = 27
method = modified trap
totiter = 2022
traniter = 1048
tranpoints = 525
accept = 525
rejected = 0
matrix size = 159
fillins = 166
solver = Normal
Thread vector: 8.4/5.1[3] 1.5/1.7[1] 2.4/2.5[1] 0.5/1.2[1]  2592/500
Matrix Compiler1: 17.49 KB object code size  2.6/1.3/[0.6]
Matrix Compiler2: 15.78 KB object code size  1.5/2.1/[0.6]

