Circuit: * C:\Users\Angus McLennan\Documents\1. Uni Work\HPR\Strelka-Flight-Computer\Simulations\Continuity_Test.asc

Direct Newton iteration failed to find .op point.  (Use ".option noopiter" to skip.)
Starting Gmin stepping
Gmin = 10
Gmin = 1.07374
Gmin = 0.115292
Gmin = 0.0123794
Gmin = 0.00132923
Gmin = 0.000142725
Gmin = 1.5325e-005
vernier = 0.5
vernier = 0.25
vernier = 0.125
vernier = 0.0625
vernier = 0.03125
vernier = 0.015625
Gmin = 7.84638e-006
vernier = 0.0078125
vernier = 0.00390625
vernier = 0.00195313
vernier = 0.000976563
vernier = 0.000488281
Gmin = 0
Gmin stepping failed

Starting source stepping with srcstepmethod=0
Source Step = 3.0303%
vernier = 0.25
Source Step = 0.0177557%
Starting source stepping with srcstepmethod=1
Source Step = 3.0303%
Source Step = 33.3333%
Source Step = 63.6364%
Source Step = 93.9394%
Source Step = 100%
Source Step = 100%
Source Step = 100%
Source Step = 100%
Source stepping succeeded in finding the operating point.


Date: Mon Oct 24 22:24:11 2022
Total elapsed time: 0.649 seconds.

tnom = 27
temp = 27
method = modified trap
totiter = 6388
traniter = 1048
tranpoints = 525
accept = 525
rejected = 0
matrix size = 38
fillins = 9
solver = Normal
Matrix Compiler1: 2.37 KB object code size  1.1/0.5/[0.3]
Matrix Compiler2: 3.10 KB object code size  0.6/0.7/[0.6]

