Circuit: * C:\Users\thean\OneDrive\Documents\1. Uni Work\HPR\Strelka-Flight-Computer\Simulations\Draft1.asc

Direct Newton iteration for .op point succeeded.

Date: Thu Sep 29 18:37:31 2022
Total elapsed time: 0.021 seconds.

tnom = 27
temp = 27
method = modified trap
totiter = 251
traniter = 248
tranpoints = 125
accept = 125
rejected = 0
matrix size = 1
fillins = 0
solver = Normal
Matrix Compiler1: off  0.0/0.0/[0.0]
Matrix Compiler2: 43 bytes object code size  0.0/0.0/[0.0]

